ZINC90411676
  -OEChem-11241706413D

 79 79  0     0  0  0  0  0  0999 V2000
    0.6843   30.2910    7.8764 C   0  0  0  0  0  0  0  0  0  0  0  0
    0.6544   30.8554    6.6149 C   0  0  0  0  0  0  0  0  0  0  0  0
    1.1060   30.1354    5.5247 C   0  0  0  0  0  0  0  0  0  0  0  0
    1.5879   28.8511    5.6962 C   0  0  0  0  0  0  0  0  0  0  0  0
    1.6186   28.2871    6.9578 C   0  0  0  0  0  0  0  0  0  0  0  0
    1.1657   29.0066    8.0477 C   0  0  0  0  0  0  0  0  0  0  0  0
    2.0793   28.0658    4.5075 C   0  0  0  0  0  0  0  0  0  0  0  0
    3.4752   28.3082    4.3204 O   0  0  0  0  0  0  0  0  0  0  0  0
    4.0435   27.6070    3.2127 C   0  0  0  0  0  0  0  0  0  0  0  0
    5.5333   27.9398    3.1085 C   0  0  0  0  0  0  0  0  0  0  0  0
    6.2145   27.4410    4.2614 O   0  0  0  0  0  0  0  0  0  0  0  0
    7.6198   27.7004    4.2637 C   0  0  0  0  0  0  0  0  0  0  0  0
    8.2425   27.1253    5.5375 C   0  0  0  0  0  0  0  0  0  0  0  0
    8.1209   25.7016    5.5262 O   0  0  0  0  0  0  0  0  0  0  0  0
    8.6743   25.0619    6.6780 C   0  0  0  0  0  0  0  0  0  0  0  0
    8.4887   23.5479    6.5590 C   0  0  0  0  0  0  0  0  0  0  0  0
    9.2507   23.0600    5.4530 O   0  0  0  0  0  0  0  0  0  0  0  0
    9.1466   21.6490    5.2527 C   0  0  0  0  0  0  0  0  0  0  0  0
    9.9983   21.2405    4.0491 C   0  0  0  0  0  0  0  0  0  0  0  0
   11.3771   21.4807    4.3376 O   0  0  0  0  0  0  0  0  0  0  0  0
   12.2632   21.1312    3.2726 C   0  0  0  0  0  0  0  0  0  0  0  0
   13.7048   21.4289    3.6900 C   0  0  0  0  0  0  0  0  0  0  0  0
   14.0701   20.5797    4.7798 O   0  0  0  0  0  0  0  0  0  0  0  0
   15.4053   20.7781    5.2489 C   0  0  0  0  0  0  0  0  0  0  0  0
   15.6854   19.8215    6.4097 C   0  0  0  0  0  0  0  0  0  0  0  0
   15.6474   18.4738    5.9361 O   0  0  0  0  0  0  0  0  0  0  0  0
   15.8977   17.4953    6.9469 C   0  0  0  0  0  0  0  0  0  0  0  0
   15.8324   16.0966    6.3301 C   0  0  0  0  0  0  0  0  0  0  0  0
   16.8928   15.9431    5.3845 O   0  0  0  0  0  0  0  0  0  0  0  0
   16.9226   14.6645    4.7471 C   0  0  0  0  0  0  0  0  0  0  0  0
   18.0915   14.6132    3.7612 C   0  0  0  0  0  0  0  0  0  0  0  0
   19.3239   14.7069    4.4784 O   0  0  0  0  0  0  0  0  0  0  0  0
   20.4851   14.6684    3.6463 C   0  0  0  0  0  0  0  0  0  0  0  0
   21.7395   14.7754    4.5157 C   0  0  0  0  0  0  0  0  0  0  0  0
   21.8372   13.6229    5.3548 O   0  0  0  0  0  0  0  0  0  0  0  0
    0.3356   30.8552    8.7287 H   0  0  0  0  0  0  0  0  0  0  0  0
    0.2779   31.8588    6.4809 H   0  0  0  0  0  0  0  0  0  0  0  0
    1.0820   30.5761    4.5390 H   0  0  0  0  0  0  0  0  0  0  0  0
    1.9948   27.2836    7.0917 H   0  0  0  0  0  0  0  0  0  0  0  0
    1.1893   28.5659    9.0334 H   0  0  0  0  0  0  0  0  0  0  0  0
    1.9154   27.0024    4.6817 H   0  0  0  0  0  0  0  0  0  0  0  0
    1.5340   28.3763    3.6163 H   0  0  0  0  0  0  0  0  0  0  0  0
    3.9204   26.5340    3.3600 H   0  0  0  0  0  0  0  0  0  0  0  0
    3.5390   27.9080    2.2946 H   0  0  0  0  0  0  0  0  0  0  0  0
    5.9474   27.4764    2.2130 H   0  0  0  0  0  0  0  0  0  0  0  0
    5.6609   29.0208    3.0503 H   0  0  0  0  0  0  0  0  0  0  0  0
    8.0771   27.2321    3.3922 H   0  0  0  0  0  0  0  0  0  0  0  0
    7.7906   28.7764    4.2296 H   0  0  0  0  0  0  0  0  0  0  0  0
    9.2964   27.3997    5.5825 H   0  0  0  0  0  0  0  0  0  0  0  0
    7.7249   27.5274    6.4085 H   0  0  0  0  0  0  0  0  0  0  0  0
    9.7372   25.2934    6.7467 H   0  0  0  0  0  0  0  0  0  0  0  0
    8.1656   25.4210    7.5727 H   0  0  0  0  0  0  0  0  0  0  0  0
    8.8300   23.0668    7.4757 H   0  0  0  0  0  0  0  0  0  0  0  0
    7.4340   23.3223    6.4013 H   0  0  0  0  0  0  0  0  0  0  0  0
    9.5015   21.1285    6.1422 H   0  0  0  0  0  0  0  0  0  0  0  0
    8.1056   21.3841    5.0678 H   0  0  0  0  0  0  0  0  0  0  0  0
    9.8497   20.1808    3.8417 H   0  0  0  0  0  0  0  0  0  0  0  0
    9.7019   21.8261    3.1787 H   0  0  0  0  0  0  0  0  0  0  0  0
   12.1617   20.0691    3.0491 H   0  0  0  0  0  0  0  0  0  0  0  0
   12.0139   21.7144    2.3862 H   0  0  0  0  0  0  0  0  0  0  0  0
   14.3720   21.2463    2.8477 H   0  0  0  0  0  0  0  0  0  0  0  0
   13.7858   22.4712    3.9985 H   0  0  0  0  0  0  0  0  0  0  0  0
   16.1079   20.5821    4.4389 H   0  0  0  0  0  0  0  0  0  0  0  0
   15.5216   21.8069    5.5897 H   0  0  0  0  0  0  0  0  0  0  0  0
   16.6707   20.0330    6.8251 H   0  0  0  0  0  0  0  0  0  0  0  0
   14.9286   19.9566    7.1824 H   0  0  0  0  0  0  0  0  0  0  0  0
   16.8874   17.6584    7.3735 H   0  0  0  0  0  0  0  0  0  0  0  0
   15.1453   17.5820    7.7309 H   0  0  0  0  0  0  0  0  0  0  0  0
   15.9349   15.3479    7.1157 H   0  0  0  0  0  0  0  0  0  0  0  0
   14.8746   15.9660    5.8264 H   0  0  0  0  0  0  0  0  0  0  0  0
   17.0477   13.8861    5.4998 H   0  0  0  0  0  0  0  0  0  0  0  0
   15.9875   14.5042    4.2106 H   0  0  0  0  0  0  0  0  0  0  0  0
   18.0619   13.6728    3.2111 H   0  0  0  0  0  0  0  0  0  0  0  0
   18.0139   15.4458    3.0620 H   0  0  0  0  0  0  0  0  0  0  0  0
   20.5051   13.7290    3.0938 H   0  0  0  0  0  0  0  0  0  0  0  0
   20.4571   15.5021    2.9446 H   0  0  0  0  0  0  0  0  0  0  0  0
   22.6204   14.8355    3.8767 H   0  0  0  0  0  0  0  0  0  0  0  0
   21.6775   15.6709    5.1343 H   0  0  0  0  0  0  0  0  0  0  0  0
   22.6109   13.6232    5.9348 H   0  0  0  0  0  0  0  0  0  0  0  0
  1  6  2  0  0  0  0
  1  2  1  0  0  0  0
  1 36  1  0  0  0  0
  2  3  2  0  0  0  0
  2 37  1  0  0  0  0
  3  4  1  0  0  0  0
  3 38  1  0  0  0  0
  4  5  2  0  0  0  0
  4  7  1  0  0  0  0
  5  6  1  0  0  0  0
  5 39  1  0  0  0  0
  6 40  1  0  0  0  0
  7  8  1  0  0  0  0
  7 41  1  0  0  0  0
  7 42  1  0  0  0  0
  8  9  1  0  0  0  0
  9 10  1  0  0  0  0
  9 43  1  0  0  0  0
  9 44  1  0  0  0  0
 10 11  1  0  0  0  0
 10 45  1  0  0  0  0
 10 46  1  0  0  0  0
 11 12  1  0  0  0  0
 12 13  1  0  0  0  0
 12 47  1  0  0  0  0
 12 48  1  0  0  0  0
 13 14  1  0  0  0  0
 13 49  1  0  0  0  0
 13 50  1  0  0  0  0
 14 15  1  0  0  0  0
 15 16  1  0  0  0  0
 15 51  1  0  0  0  0
 15 52  1  0  0  0  0
 16 17  1  0  0  0  0
 16 53  1  0  0  0  0
 16 54  1  0  0  0  0
 17 18  1  0  0  0  0
 18 19  1  0  0  0  0
 18 55  1  0  0  0  0
 18 56  1  0  0  0  0
 19 20  1  0  0  0  0
 19 57  1  0  0  0  0
 19 58  1  0  0  0  0
 20 21  1  0  0  0  0
 21 22  1  0  0  0  0
 21 59  1  0  0  0  0
 21 60  1  0  0  0  0
 22 23  1  0  0  0  0
 22 61  1  0  0  0  0
 22 62  1  0  0  0  0
 23 24  1  0  0  0  0
 24 25  1  0  0  0  0
 24 63  1  0  0  0  0
 24 64  1  0  0  0  0
 25 26  1  0  0  0  0
 25 65  1  0  0  0  0
 25 66  1  0  0  0  0
 26 27  1  0  0  0  0
 27 28  1  0  0  0  0
 27 67  1  0  0  0  0
 27 68  1  0  0  0  0
 28 29  1  0  0  0  0
 28 69  1  0  0  0  0
 28 70  1  0  0  0  0
 29 30  1  0  0  0  0
 30 31  1  0  0  0  0
 30 71  1  0  0  0  0
 30 72  1  0  0  0  0
 31 32  1  0  0  0  0
 31 73  1  0  0  0  0
 31 74  1  0  0  0  0
 32 33  1  0  0  0  0
 33 34  1  0  0  0  0
 33 75  1  0  0  0  0
 33 76  1  0  0  0  0
 34 35  1  0  0  0  0
 34 77  1  0  0  0  0
 34 78  1  0  0  0  0
 35 79  1  0  0  0  0
M  END
> <FRED Chemgauss4 score>
10.2338

$$$$
ZINC25725556
  -OEChem-11231716313D

 80 79  0     0  0  0  0  0  0999 V2000
    3.1360   28.7843    2.0892 C   0  0  0  0  0  0  0  0  0  0  0  0
    4.6378   28.6298    2.3376 C   0  0  0  0  0  0  0  0  0  0  0  0
    4.8773   27.4742    3.3113 C   0  0  0  0  0  0  0  0  0  0  0  0
    6.3791   27.3196    3.5599 C   0  0  0  0  0  0  0  0  0  0  0  0
    6.6187   26.1640    4.5335 C   0  0  0  0  0  0  0  0  0  0  0  0
    8.1204   26.0094    4.7820 C   0  0  0  0  0  0  0  0  0  0  0  0
    8.3441   24.9302    5.6914 O   0  0  0  0  0  0  0  0  0  0  0  0
    9.6185   24.6611    6.0161 C   0  0  0  0  0  0  0  0  0  0  0  0
   10.5143   25.3201    5.5439 O   0  0  0  0  0  0  0  0  0  0  0  0
    9.9318   23.5370    6.9697 C   0  0  0  0  0  0  0  0  0  0  0  0
   11.4460   23.4440    7.1684 C   0  0  0  0  0  0  0  0  0  0  0  0
   11.7727   22.2271    8.0364 C   0  0  0  0  0  0  0  0  0  0  0  0
   13.2641   22.1354    8.2321 C   0  0  0  0  0  0  0  0  0  0  0  0
   13.9912   22.9589    7.7289 O   0  0  0  0  0  0  0  0  0  0  0  0
   13.7848   21.1389    8.9653 O   0  0  0  0  0  0  0  0  0  0  0  0
   15.2063   21.1136    9.1090 C   0  0  0  0  0  0  0  0  0  0  0  0
   15.6105   19.9157    9.9708 C   0  0  0  0  0  0  0  0  0  0  0  0
   17.1325   19.8886   10.1247 C   0  0  0  0  0  0  0  0  0  0  0  0
   17.5367   18.6907   10.9864 C   0  0  0  0  0  0  0  0  0  0  0  0
   19.0587   18.6636   11.1403 C   0  0  0  0  0  0  0  0  0  0  0  0
   19.4630   17.4657   12.0020 C   0  0  0  0  0  0  0  0  0  0  0  0
   12.1206   23.3009    5.8284 C   0  0  0  0  0  0  0  0  0  0  0  0
   12.9213   24.1290    5.4636 O   0  0  0  0  0  0  0  0  0  0  0  0
   11.8320   22.2535    5.0402 O   0  0  0  0  0  0  0  0  0  0  0  0
   12.5087   22.1812    3.7836 C   0  0  0  0  0  0  0  0  0  0  0  0
   12.0541   20.9293    3.0307 C   0  0  0  0  0  0  0  0  0  0  0  0
   12.7787   20.8521    1.6854 C   0  0  0  0  0  0  0  0  0  0  0  0
   12.3240   19.6001    0.9325 C   0  0  0  0  0  0  0  0  0  0  0  0
   13.0485   19.5228   -0.4129 C   0  0  0  0  0  0  0  0  0  0  0  0
   12.5938   18.2709   -1.1658 C   0  0  0  0  0  0  0  0  0  0  0  0
   11.9155   24.6293    7.8140 O   0  0  0  0  0  0  0  0  0  0  0  0
   11.4089   24.9044    9.0262 C   0  0  0  0  0  0  0  0  0  0  0  0
   10.5939   24.1635    9.5226 O   0  0  0  0  0  0  0  0  0  0  0  0
   11.8567   26.1376    9.7677 C   0  0  0  0  0  0  0  0  0  0  0  0
    2.9653   29.6076    1.3955 H   0  0  0  0  0  0  0  0  0  0  0  0
    2.7415   27.8621    1.6627 H   0  0  0  0  0  0  0  0  0  0  0  0
    2.6313   28.9934    3.0324 H   0  0  0  0  0  0  0  0  0  0  0  0
    5.1425   28.4207    1.3944 H   0  0  0  0  0  0  0  0  0  0  0  0
    5.0323   29.5521    2.7642 H   0  0  0  0  0  0  0  0  0  0  0  0
    4.3726   27.6833    4.2546 H   0  0  0  0  0  0  0  0  0  0  0  0
    4.4828   26.5519    2.8848 H   0  0  0  0  0  0  0  0  0  0  0  0
    6.8838   27.1105    2.6166 H   0  0  0  0  0  0  0  0  0  0  0  0
    6.7736   28.2418    3.9864 H   0  0  0  0  0  0  0  0  0  0  0  0
    6.1139   26.3731    5.4767 H   0  0  0  0  0  0  0  0  0  0  0  0
    6.2241   25.2418    4.1070 H   0  0  0  0  0  0  0  0  0  0  0  0
    8.6251   25.8004    3.8387 H   0  0  0  0  0  0  0  0  0  0  0  0
    8.5149   26.9317    5.2085 H   0  0  0  0  0  0  0  0  0  0  0  0
    9.4507   23.7293    7.9286 H   0  0  0  0  0  0  0  0  0  0  0  0
    9.5609   22.5980    6.5589 H   0  0  0  0  0  0  0  0  0  0  0  0
   11.2847   22.3305    9.0055 H   0  0  0  0  0  0  0  0  0  0  0  0
   11.4146   21.3229    7.5440 H   0  0  0  0  0  0  0  0  0  0  0  0
   15.6694   21.0268    8.1262 H   0  0  0  0  0  0  0  0  0  0  0  0
   15.5396   22.0345    9.5877 H   0  0  0  0  0  0  0  0  0  0  0  0
   15.1475   20.0025   10.9537 H   0  0  0  0  0  0  0  0  0  0  0  0
   15.2772   18.9949    9.4922 H   0  0  0  0  0  0  0  0  0  0  0  0
   17.5956   19.8019    9.1418 H   0  0  0  0  0  0  0  0  0  0  0  0
   17.4657   20.8095   10.6033 H   0  0  0  0  0  0  0  0  0  0  0  0
   17.0736   18.7775   11.9693 H   0  0  0  0  0  0  0  0  0  0  0  0
   17.2035   17.7699   10.5078 H   0  0  0  0  0  0  0  0  0  0  0  0
   19.5218   18.5769   10.1574 H   0  0  0  0  0  0  0  0  0  0  0  0
   19.3920   19.5844   11.6190 H   0  0  0  0  0  0  0  0  0  0  0  0
   20.5472   17.4464   12.1117 H   0  0  0  0  0  0  0  0  0  0  0  0
   18.9998   17.5525   12.9850 H   0  0  0  0  0  0  0  0  0  0  0  0
   19.1297   16.5449   11.5234 H   0  0  0  0  0  0  0  0  0  0  0  0
   12.2730   23.0662    3.1926 H   0  0  0  0  0  0  0  0  0  0  0  0
   13.5845   22.1330    3.9526 H   0  0  0  0  0  0  0  0  0  0  0  0
   12.2897   20.0443    3.6217 H   0  0  0  0  0  0  0  0  0  0  0  0
   10.9784   20.9775    2.8619 H   0  0  0  0  0  0  0  0  0  0  0  0
   12.5429   21.7371    1.0944 H   0  0  0  0  0  0  0  0  0  0  0  0
   13.8544   20.8038    1.8542 H   0  0  0  0  0  0  0  0  0  0  0  0
   12.5597   18.7151    1.5235 H   0  0  0  0  0  0  0  0  0  0  0  0
   11.2482   19.6483    0.7635 H   0  0  0  0  0  0  0  0  0  0  0  0
   12.8128   20.4078   -1.0038 H   0  0  0  0  0  0  0  0  0  0  0  0
   14.1243   19.4746   -0.2440 H   0  0  0  0  0  0  0  0  0  0  0  0
   12.8296   17.3858   -0.5748 H   0  0  0  0  0  0  0  0  0  0  0  0
   11.5181   18.3191   -1.3347 H   0  0  0  0  0  0  0  0  0  0  0  0
   13.1100   18.2158   -2.1243 H   0  0  0  0  0  0  0  0  0  0  0  0
   12.5889   26.6771    9.1668 H   0  0  0  0  0  0  0  0  0  0  0  0
   10.9969   26.7803    9.9564 H   0  0  0  0  0  0  0  0  0  0  0  0
   12.3083   25.8471   10.7162 H   0  0  0  0  0  0  0  0  0  0  0  0
  1  2  1  0  0  0  0
  1 35  1  0  0  0  0
  1 36  1  0  0  0  0
  1 37  1  0  0  0  0
  2  3  1  0  0  0  0
  2 38  1  0  0  0  0
  2 39  1  0  0  0  0
  3  4  1  0  0  0  0
  3 40  1  0  0  0  0
  3 41  1  0  0  0  0
  4  5  1  0  0  0  0
  4 42  1  0  0  0  0
  4 43  1  0  0  0  0
  5  6  1  0  0  0  0
  5 44  1  0  0  0  0
  5 45  1  0  0  0  0
  6  7  1  0  0  0  0
  6 46  1  0  0  0  0
  6 47  1  0  0  0  0
  7  8  1  0  0  0  0
  8  9  2  0  0  0  0
  8 10  1  0  0  0  0
 10 11  1  0  0  0  0
 10 48  1  0  0  0  0
 10 49  1  0  0  0  0
 11 12  1  0  0  0  0
 11 22  1  0  0  0  0
 11 31  1  0  0  0  0
 12 13  1  0  0  0  0
 12 50  1  0  0  0  0
 12 51  1  0  0  0  0
 13 14  2  0  0  0  0
 13 15  1  0  0  0  0
 15 16  1  0  0  0  0
 16 17  1  0  0  0  0
 16 52  1  0  0  0  0
 16 53  1  0  0  0  0
 17 18  1  0  0  0  0
 17 54  1  0  0  0  0
 17 55  1  0  0  0  0
 18 19  1  0  0  0  0
 18 56  1  0  0  0  0
 18 57  1  0  0  0  0
 19 20  1  0  0  0  0
 19 58  1  0  0  0  0
 19 59  1  0  0  0  0
 20 21  1  0  0  0  0
 20 60  1  0  0  0  0
 20 61  1  0  0  0  0
 21 62  1  0  0  0  0
 21 63  1  0  0  0  0
 21 64  1  0  0  0  0
 22 23  2  0  0  0  0
 22 24  1  0  0  0  0
 24 25  1  0  0  0  0
 25 26  1  0  0  0  0
 25 65  1  0  0  0  0
 25 66  1  0  0  0  0
 26 27  1  0  0  0  0
 26 67  1  0  0  0  0
 26 68  1  0  0  0  0
 27 28  1  0  0  0  0
 27 69  1  0  0  0  0
 27 70  1  0  0  0  0
 28 29  1  0  0  0  0
 28 71  1  0  0  0  0
 28 72  1  0  0  0  0
 29 30  1  0  0  0  0
 29 73  1  0  0  0  0
 29 74  1  0  0  0  0
 30 75  1  0  0  0  0
 30 76  1  0  0  0  0
 30 77  1  0  0  0  0
 31 32  1  0  0  0  0
 32 33  2  0  0  0  0
 32 34  1  0  0  0  0
 34 78  1  0  0  0  0
 34 79  1  0  0  0  0
 34 80  1  0  0  0  0
M  END
> <FRED Chemgauss4 score>
5.36164

$$$$
ZINC34317654
  -OEChem-11231713453D

 76 75  0     0  0  0  0  0  0999 V2000
   20.5582   12.2873    4.8757 C   0  0  0  0  0  0  0  0  0  0  0  0
   20.5882   13.6950    4.6316 O   0  0  0  0  0  0  0  0  0  0  0  0
   20.2096   14.4884    5.7581 C   0  0  0  0  0  0  0  0  0  0  0  0
   20.2778   15.9704    5.3842 C   0  0  0  0  0  0  0  0  0  0  0  0
   19.3032   16.2531    4.3781 O   0  0  0  0  0  0  0  0  0  0  0  0
   19.2832   17.6180    3.9553 C   0  0  0  0  0  0  0  0  0  0  0  0
   18.2082   17.8041    2.8827 C   0  0  0  0  0  0  0  0  0  0  0  0
   16.9198   17.5662    3.4534 O   0  0  0  0  0  0  0  0  0  0  0  0
   15.8389   17.7147    2.5305 C   0  0  0  0  0  0  0  0  0  0  0  0
   14.5154   17.4381    3.2464 C   0  0  0  0  0  0  0  0  0  0  0  0
   14.2977   18.4348    4.2470 O   0  0  0  0  0  0  0  0  0  0  0  0
   13.0817   18.2679    4.9788 C   0  0  0  0  0  0  0  0  0  0  0  0
   12.9537   19.3847    6.0166 C   0  0  0  0  0  0  0  0  0  0  0  0
   12.8242   20.6421    5.3500 O   0  0  0  0  0  0  0  0  0  0  0  0
   12.6976   21.7580    6.2335 C   0  0  0  0  0  0  0  0  0  0  0  0
   12.5664   23.0441    5.4151 C   0  0  0  0  0  0  0  0  0  0  0  0
   11.3477   23.0119    4.6695 O   0  0  0  0  0  0  0  0  0  0  0  0
   11.1268   24.1731    3.8664 C   0  0  0  0  0  0  0  0  0  0  0  0
    9.8007   24.0301    3.1169 C   0  0  0  0  0  0  0  0  0  0  0  0
    8.7232   24.0089    4.0552 O   0  0  0  0  0  0  0  0  0  0  0  0
    7.4327   23.8777    3.4555 C   0  0  0  0  0  0  0  0  0  0  0  0
    6.3614   23.8664    4.5478 C   0  0  0  0  0  0  0  0  0  0  0  0
    6.3434   25.1323    5.2105 O   0  0  0  0  0  0  0  0  0  0  0  0
    5.3724   25.2281    6.2545 C   0  0  0  0  0  0  0  0  0  0  0  0
    5.4423   26.6181    6.8901 C   0  0  0  0  0  0  0  0  0  0  0  0
    5.0601   27.6021    5.9269 O   0  0  0  0  0  0  0  0  0  0  0  0
    5.0915   28.9424    6.4215 C   0  0  0  0  0  0  0  0  0  0  0  0
    4.6662   29.9057    5.3115 C   0  0  0  0  0  0  0  0  0  0  0  0
    3.3011   29.6618    4.9662 O   0  0  0  0  0  0  0  0  0  0  0  0
    2.8020   30.5131    3.9327 C   0  0  0  0  0  0  0  0  0  0  0  0
    1.3398   30.1650    3.6469 C   0  0  0  0  0  0  0  0  0  0  0  0
    0.5459   30.4617    4.7975 O   0  0  0  0  0  0  0  0  0  0  0  0
   19.5478   11.9883    5.1547 H   0  0  0  0  0  0  0  0  0  0  0  0
   20.8581   11.7554    3.9728 H   0  0  0  0  0  0  0  0  0  0  0  0
   21.2458   12.0443    5.6859 H   0  0  0  0  0  0  0  0  0  0  0  0
   19.1921   14.2352    6.0555 H   0  0  0  0  0  0  0  0  0  0  0  0
   20.8900   14.2910    6.5866 H   0  0  0  0  0  0  0  0  0  0  0  0
   20.0757   16.5775    6.2666 H   0  0  0  0  0  0  0  0  0  0  0  0
   21.2720   16.2036    5.0027 H   0  0  0  0  0  0  0  0  0  0  0  0
   19.0605   18.2593    4.8081 H   0  0  0  0  0  0  0  0  0  0  0  0
   20.2568   17.8853    3.5443 H   0  0  0  0  0  0  0  0  0  0  0  0
   18.2522   18.8225    2.4969 H   0  0  0  0  0  0  0  0  0  0  0  0
   18.3809   17.0995    2.0692 H   0  0  0  0  0  0  0  0  0  0  0  0
   15.8339   18.7313    2.1374 H   0  0  0  0  0  0  0  0  0  0  0  0
   15.9625   17.0083    1.7095 H   0  0  0  0  0  0  0  0  0  0  0  0
   13.6993   17.4639    2.5242 H   0  0  0  0  0  0  0  0  0  0  0  0
   14.5546   16.4549    3.7154 H   0  0  0  0  0  0  0  0  0  0  0  0
   12.2359   18.3110    4.2925 H   0  0  0  0  0  0  0  0  0  0  0  0
   13.0910   17.3020    5.4837 H   0  0  0  0  0  0  0  0  0  0  0  0
   12.0725   19.2082    6.6335 H   0  0  0  0  0  0  0  0  0  0  0  0
   13.8423   19.3979    6.6477 H   0  0  0  0  0  0  0  0  0  0  0  0
   11.8111   21.6307    6.8549 H   0  0  0  0  0  0  0  0  0  0  0  0
   13.5809   21.8204    6.8690 H   0  0  0  0  0  0  0  0  0  0  0  0
   12.5590   23.9028    6.0864 H   0  0  0  0  0  0  0  0  0  0  0  0
   13.4097   23.1261    4.7295 H   0  0  0  0  0  0  0  0  0  0  0  0
   11.0897   25.0553    4.5056 H   0  0  0  0  0  0  0  0  0  0  0  0
   11.9403   24.2785    3.1487 H   0  0  0  0  0  0  0  0  0  0  0  0
    9.6744   24.8732    2.4377 H   0  0  0  0  0  0  0  0  0  0  0  0
    9.8041   23.1014    2.5464 H   0  0  0  0  0  0  0  0  0  0  0  0
    7.2573   24.7177    2.7833 H   0  0  0  0  0  0  0  0  0  0  0  0
    7.3870   22.9457    2.8920 H   0  0  0  0  0  0  0  0  0  0  0  0
    5.3865   23.6776    4.0985 H   0  0  0  0  0  0  0  0  0  0  0  0
    6.5870   23.0815    5.2698 H   0  0  0  0  0  0  0  0  0  0  0  0
    4.3769   25.0675    5.8407 H   0  0  0  0  0  0  0  0  0  0  0  0
    5.5775   24.4715    7.0118 H   0  0  0  0  0  0  0  0  0  0  0  0
    4.7650   26.6622    7.7429 H   0  0  0  0  0  0  0  0  0  0  0  0
    6.4611   26.8137    7.2247 H   0  0  0  0  0  0  0  0  0  0  0  0
    4.4068   29.0347    7.2646 H   0  0  0  0  0  0  0  0  0  0  0  0
    6.1029   29.1862    6.7465 H   0  0  0  0  0  0  0  0  0  0  0  0
    4.7750   30.9326    5.6602 H   0  0  0  0  0  0  0  0  0  0  0  0
    5.2957   29.7509    4.4352 H   0  0  0  0  0  0  0  0  0  0  0  0
    2.8720   31.5527    4.2528 H   0  0  0  0  0  0  0  0  0  0  0  0
    3.3929   30.3710    3.0278 H   0  0  0  0  0  0  0  0  0  0  0  0
    0.9854   30.7521    2.7998 H   0  0  0  0  0  0  0  0  0  0  0  0
    1.2581   29.1035    3.4130 H   0  0  0  0  0  0  0  0  0  0  0  0
   -0.3946   30.2652    4.6876 H   0  0  0  0  0  0  0  0  0  0  0  0
  1  2  1  0  0  0  0
  1 33  1  0  0  0  0
  1 34  1  0  0  0  0
  1 35  1  0  0  0  0
  2  3  1  0  0  0  0
  3  4  1  0  0  0  0
  3 36  1  0  0  0  0
  3 37  1  0  0  0  0
  4  5  1  0  0  0  0
  4 38  1  0  0  0  0
  4 39  1  0  0  0  0
  5  6  1  0  0  0  0
  6  7  1  0  0  0  0
  6 40  1  0  0  0  0
  6 41  1  0  0  0  0
  7  8  1  0  0  0  0
  7 42  1  0  0  0  0
  7 43  1  0  0  0  0
  8  9  1  0  0  0  0
  9 10  1  0  0  0  0
  9 44  1  0  0  0  0
  9 45  1  0  0  0  0
 10 11  1  0  0  0  0
 10 46  1  0  0  0  0
 10 47  1  0  0  0  0
 11 12  1  0  0  0  0
 12 13  1  0  0  0  0
 12 48  1  0  0  0  0
 12 49  1  0  0  0  0
 13 14  1  0  0  0  0
 13 50  1  0  0  0  0
 13 51  1  0  0  0  0
 14 15  1  0  0  0  0
 15 16  1  0  0  0  0
 15 52  1  0  0  0  0
 15 53  1  0  0  0  0
 16 17  1  0  0  0  0
 16 54  1  0  0  0  0
 16 55  1  0  0  0  0
 17 18  1  0  0  0  0
 18 19  1  0  0  0  0
 18 56  1  0  0  0  0
 18 57  1  0  0  0  0
 19 20  1  0  0  0  0
 19 58  1  0  0  0  0
 19 59  1  0  0  0  0
 20 21  1  0  0  0  0
 21 22  1  0  0  0  0
 21 60  1  0  0  0  0
 21 61  1  0  0  0  0
 22 23  1  0  0  0  0
 22 62  1  0  0  0  0
 22 63  1  0  0  0  0
 23 24  1  0  0  0  0
 24 25  1  0  0  0  0
 24 64  1  0  0  0  0
 24 65  1  0  0  0  0
 25 26  1  0  0  0  0
 25 66  1  0  0  0  0
 25 67  1  0  0  0  0
 26 27  1  0  0  0  0
 27 28  1  0  0  0  0
 27 68  1  0  0  0  0
 27 69  1  0  0  0  0
 28 29  1  0  0  0  0
 28 70  1  0  0  0  0
 28 71  1  0  0  0  0
 29 30  1  0  0  0  0
 30 31  1  0  0  0  0
 30 72  1  0  0  0  0
 30 73  1  0  0  0  0
 31 32  1  0  0  0  0
 31 74  1  0  0  0  0
 31 75  1  0  0  0  0
 32 76  1  0  0  0  0
M  END
> <FRED Chemgauss4 score>
4.84573

$$$$
